feeders/123Bus/ieee123_Losses.Txt

LOSSES REPORT

Power Delivery Element Loss Report

Element                  kW Losses    % of Power   kvar Losses

"Transformer.REG1A"   0.00031,      0.0     0.0305265
"Line.L115"          19.31432,     0.53     40.5846
"Line.L1"             0.00357,     0.02     0.00268881
"Line.L2"             0.13649,     0.13     0.137066
"Line.L3"            13.19806,     0.38     27.6957
"Line.L4"             0.01657,     0.04     0.0157554
"Line.L5"             0.06613,     0.11     0.0653483
"Line.L6"             0.02299,     0.05     0.02201
"Line.L7"             8.65366,     0.25     18.1405
"Line.L8"             0.00461,     0.02     0.00349001
"Line.L9"             0.12269,     0.12     0.123252
"Line.L10"           11.83569,     0.36     24.7271
"Line.L11"            0.08431,     0.14     0.0833398
"Line.L12"            0.08164,     0.08     0.0820053
"Line.L13"            4.92070,     0.44     9.94999
"Line.L14"            0.02214,     0.05     0.0211925
"Line.L15"            0.00546,     0.03     0.00428849
"Line.L16"            0.03202,     0.08     0.0305627
"Line.L17"            0.00746,     0.04     0.00579636
"Line.L18"            0.08812,     0.11     0.0881213
"Line.L19"            0.12619,     0.04     0.2517
"Line.L20"            0.02841,     0.07     0.0272246
"Line.L21"            0.04825,     0.11     0.046189
"Line.L22"            0.11261,     0.05     0.231371
"Line.L23"            0.04778,     0.12     0.0457097
"Line.L24"            0.09150,     0.05     0.185808
"Line.L25"            0.01744,     0.02     0.0356444
"Line.L26"            0.02609,     0.02     0.0505604
"Line.L27"            0.00828,     0.02     0.0160576
"Line.L28"            0.01957,     0.05     0.0187283
"Line.L29"            0.04371,     0.11     0.0418293
"Line.L30"            0.01486,     0.02     0.024425
"Line.L31"            0.01048,     0.03     0.0166625
"Line.L32"            0.00000,      0.0     -0.00458911
"Line.L33"            0.00653,     0.03     0.0051315
"Line.L34"            0.01920,     0.03     0.0189611
"Line.L35"            0.03220,     0.04     0.0658638
"Line.L36"            0.48207,     0.08     0.97891
"Line.L37"            0.02564,     0.07     0.0245441
"Line.L38"            0.02137,     0.05     0.0203731
"Line.L39"            0.00679,     0.03     0.00520753
"Line.L40"            0.00704,     0.04     0.00552258
"Line.L41"            0.45892,     0.07     0.929399
"Line.L42"            0.04552,     0.11     0.043579
"Line.L43"            0.29919,     0.05     0.608677
"Line.L44"            0.01774,     0.04     0.0170284
"Line.L45"            0.32689,     0.06     0.664608
"Line.L46"            0.00675,     0.03     0.00540848
"Line.L47"            0.03359,     0.02     0.065709
"Line.L48"            0.04807,     0.02     0.0946034
"Line.L49"            0.00814,     0.01     0.0138025
"Line.L50"            0.00196,     0.01     -0.000556141
"Line.L51"            0.00000,      0.0     -0.0101404
"Line.L52"            2.69581,     0.14     5.62051
"Line.L53"            1.59896,     0.08     3.31966
"Line.L54"            0.00337,     0.01     0.000822468
"Line.L55"            4.29169,     0.23     8.79478
"Line.L56"            0.00200,     0.01     -0.00185684
"Line.L57"            0.02133,     0.05     0.0203258
"Line.L58"            8.89069,     0.48     18.1828
"Line.L59"            0.00520,     0.03     0.00397974
"Line.L60"            0.00000,      0.0     -0.0124417
"Line.L61"            0.56369,     0.15     0.219713
"Line.L62"            0.29524,     0.09     0.104329
"Line.L63"            0.53276,     0.18     0.179311
"Line.L64"            0.45220,     0.21     0.133787
"Line.L65"            0.11360,     0.15     -0.0147395
"Line.L66"            0.14602,     0.12     0.146964
"Line.L67"            0.76671,     0.09     1.57029
"Line.L68"            0.20507,     0.05     0.41956
"Line.L69"            0.13956,     0.14     0.140012
"Line.L70"            0.05945,     0.10     0.058545
"Line.L71"            0.02237,     0.06     0.0212187
"Line.L72"            0.21207,     0.17     0.21354
"Line.L73"            0.47082,     0.06     1.00997
"Line.L74"            0.12260,     0.15     0.122449
"Line.L75"            0.03297,     0.08     0.0313347
"Line.L76"            0.42276,     0.17     0.853487
"Line.L77"            0.22534,     0.09     0.503675
"Line.L78"            0.10927,     0.05     0.220324
"Line.L79"            0.00737,     0.02     0.0118241
"Line.L80"            0.53012,     0.33     1.09663
"Line.L81"            0.20961,     0.17     0.434392
"Line.L82"            0.30709,     0.51     0.616074
"Line.L83"            0.12414,     0.21     0.122278
"Line.L84"            0.32099,     1.58     0.65683
"Line.L85"            0.03886,     0.10     0.0368878
"Line.L86"            0.11515,     0.05     0.23795
"Line.L87"            0.01949,     0.05     0.0188277
"Line.L88"            0.04007,     0.02     0.0802342
"Line.L89"            0.02865,     0.07     0.0277129
"Line.L90"            0.01742,     0.01     0.0306688
"Line.L91"            0.03336,     0.08     0.0322211
"Line.L92"            0.01056,     0.01     0.018752
"Line.L93"            0.02226,     0.06     0.0211016
"Line.L94"            0.00841,     0.02     0.0120602
"Line.L95"            0.00404,     0.02     0.00302726
"Line.L96"            0.01611,     0.01     0.0261111
"Line.L97"            0.02758,     0.03     0.0447016
"Line.L98"            0.00983,     0.02     0.0147326
"Line.L99"            0.00000,      0.0     -0.0195804
"Line.L118"           0.11328,     0.03     0.231261
"Line.L100"           0.11581,     0.12     0.116223
"Line.L101"           0.11337,     0.05     0.25289
"Line.L102"           0.10717,     0.13     0.106939
"Line.L103"           0.05781,     0.14     0.054944
"Line.L104"           0.07236,     0.09     0.0721446
"Line.L105"           0.11862,     0.08     0.265807
"Line.L106"           0.04629,     0.12     0.0438485
"Line.L107"           0.47305,     0.33     0.477184
"Line.L108"           0.00000,      0.0     -0.0244465
"Line.L109"           0.16389,     0.16     0.164569
"Line.L110"           0.01183,     0.06     0.00898508
"Line.L111"           0.04435,     0.05     0.0443078
"Line.L112"           0.10530,     0.17     0.104002
"Line.L113"           0.00672,     0.03     0.00511951
"Line.L114"           1.02656,     0.14     2.09917
"Line.L116"           5.69032,     0.28     11.9149
"Line.L117"           2.35651,     0.16     4.78635
"Line.SW1"            0.00082,      0.0     1.16415E-013
"Line.SW2"            0.00024,      0.0     0
"Line.SW3"            0.00005,      0.0     -4.36557E-014
"Line.SW4"            0.00013,      0.0     8.00355E-014
"Line.SW5"            0.00001,      0.0     2.18279E-014
"Line.SW6"            0.00000,      0.0     -6.93889E-021
"Line.SW7"            0.00000,      0.0     0
"Line.SW8"            0.00000,      0.0     0
"Transformer.XFM1"    0.00000,      0.0     0.000100046
"Capacitor.C83"       0.00000,      0.0     -655.663
"Capacitor.C88A"      0.00000,      0.0     -54.0696
"Capacitor.C90B"      0.00000,      0.0     -54.1217
"Capacitor.C92C"      0.00000,      0.0     -53.7647
"Transformer.REG2A"   0.00000,      0.0     0.000227322
"Transformer.REG3A"   0.00000,      0.0     0.000102683
"Transformer.REG4A"   0.00002,      0.0     0.0169435
"Transformer.REG3C"   0.00000,      0.0     9.96803E-005
"Transformer.REG4B"   0.00001,      0.0     0.00870587
"Transformer.REG4C"   0.00001,      0.0     0.0106501

LINE LOSSES=                        96.0 kW
TRANSFORMER LOSSES=                  0.0 kW

TOTAL LOSSES=                       96.0 kW

TOTAL LOAD POWER =                3519.3 kW
Percent Losses for Circuit =      2.73 %
